LTspice 24.1.1 for Windows
Circuit: C:\sandbox\spicelib\examples\testfiles\temp\Batch_Test_Simple_1.net
Start Time: Thu Feb  6 00:22:25 2025
solver = Normal
Maximum thread count: 12
tnom = 27
temp = 27
method = modified trap
Direct Newton iteration for .op point succeeded.
.step freq=10000
.step freq=12589.2541179417
.step freq=15848.9319246111
.step freq=19952.6231496888
.step freq=25118.8643150958
.step freq=31622.7766016838
.step freq=39810.7170553497
.step freq=50118.7233627272
.step freq=63095.7344480193
.step freq=79432.8234724282
.step freq=100000
.step freq=125892.541179417
.step freq=158489.319246111
.step freq=199526.231496888
.step freq=251188.643150958
.step freq=316227.766016838
.step freq=398107.170553498
.step freq=501187.233627273
.step freq=630957.344480194
.step freq=794328.234724282
.step freq=1000000
Total elapsed time: 2.110 seconds.

Files loaded:
Z:\Users\me\Documents\workspace\spicelib\examples\testfiles\temp\Batch_Test_Simple_1.net
C:\users\me\AppData\Local\LTspice\lib\sub\ADI1.lib


Measurement: Vout_rms
  step	RMS(V(OUT))	FROM	TO
     1	1.41109099162	0	0.001
     2	1.40728886119	0	0.001
     3	1.41292386857	0	0.001
     4	1.40874492009	0	0.001
     5	1.40111962495	0	0.001
     6	1.39624307917	0	0.001
     7	1.39146877675	0	0.001
     8	1.37993154443	0	0.001
     9	1.36810303864	0	0.001
    10	1.36489176882	0	0.001
    11	1.36494265349	0	0.001
    12	1.36587109046	0	0.001
    13	1.35791313825	0	0.001
    14	1.35042799235	0	0.001
    15	1.34126913986	0	0.001
    16	1.31589384427	0	0.001
    17	1.23348767339	0	0.001
    18	1.06250660819	0	0.001
    19	0.865798634339	0	0.001
    20	0.684319651982	0	0.001
    21	0.542628696939	0	0.001

Measurement: Vin_rms
  step	RMS(V(IN))	FROM	TO
     1	0.70621990028	0	0.001
     2	0.704738528077	0	0.001
     3	0.708224839877	0	0.001
     4	0.707020546651	0	0.001
     5	0.704636740027	0	0.001
     6	0.704165864027	0	0.001
     7	0.704547352007	0	0.001
     8	0.702180443688	0	0.001
     9	0.700520137549	0	0.001
    10	0.700259772071	0	0.001
    11	0.700118475147	0	0.001
    12	0.700841426634	0	0.001
    13	0.699889411192	0	0.001
    14	0.699443726566	0	0.001
    15	0.699525849627	0	0.001
    16	0.700218968732	0	0.001
    17	0.7003395675	0	0.001
    18	0.700401481811	0	0.001
    19	0.700769527113	0	0.001
    20	0.70074703192	0	0.001
    21	0.701821929414	0	0.001

Measurement: gain
  step	Vout_rms/Vin_rms
     1	1.99809010063
     2	1.99689502577
     3	1.99502162169
     4	1.99250916648
     5	1.98842828561
     6	1.9828326684
     7	1.97498262223
     8	1.96520930885
     9	1.95298174215
    10	1.94912205906
    11	1.94958810821
    12	1.94890176088
    13	1.94018242958
    14	1.93071714144
    15	1.91739753516
    16	1.87926049284
    17	1.7612708615
    18	1.51699651669
    19	1.23549697988
    20	0.976557332119
    21	0.773171475836

Measurement: Vout1m
  step	V(OUT)	at
     1	-0.0186233837157	0.001
     2	-1.04379224777	0.001
     3	-1.64282917976	0.001
     4	-0.622001826763	0.001
     5	1.3238786459	0.001
     6	-1.3512070179	0.001
     7	-1.88226294518	0.001
     8	1.28673577309	0.001
     9	1.03164255619	0.001
    10	0.954944550991	0.001
    11	-0.195090711117	0.001
    12	-1.42563021183	0.001
    13	0.452871799469	0.001
    14	0.101827196777	0.001
    15	1.55137848854	0.001
    16	1.65832901001	0.001
    17	0.106953442097	0.001
    18	0.420471578836	0.001
    19	-1.29685461521	0.001
    20	0.610693454742	0.001
    21	-0.867854177952	0.001

Measurement: period
  step	time	at
     1	0.000100148182069	0.000100148182069
     2	7.95810232128e-05	7.95810232128e-05
     3	6.32442563935e-05	6.32442563935e-05
     4	5.02670110755e-05	5.02670110755e-05
     5	3.99590699071e-05	3.99590699071e-05
     6	3.17721621258e-05	3.17721621258e-05
     7	2.52677164077e-05	2.52677164077e-05
     8	2.01016079598e-05	2.01016079598e-05
     9	1.6002835482e-05	1.6002835482e-05
    10	1.27407863553e-05	1.27407863553e-05
    11	1.01547918345e-05	1.01547918345e-05
    12	8.09944885414e-06	8.09944885414e-06
    13	6.47178892838e-06	6.47178892838e-06
    14	5.18171940927e-06	5.18171940927e-06
    15	4.16719354473e-06	4.16719354473e-06
    16	3.37034600586e-06	3.37034600586e-06
    17	2.75139875145e-06	2.75139875145e-06
    18	2.26305167953e-06	2.26305167953e-06
    19	1.85459538805e-06	1.85459538805e-06
    20	1.50358338135e-06	1.50358338135e-06
    21	1.20916928633e-06	1.20916928633e-06
