Circuit: * C:\sandbox\spicelib_main\examples\testfiles\DC op point - STEP_1.asc

Direct Newton iteration for .op point succeeded.

Date: Sat Sep  2 12:03:28 2023
Total elapsed time: 0.241 seconds.

tnom = 27
temp = 27
method = trap
totiter = 3
traniter = 0
tranpoints = 0
accept = 0
rejected = 0
matrix size = 7
fillins = 0
solver = Normal
Avg thread counts: 16.0/0.0/16.0/16.0
Matrix Compiler1: 268 bytes object code size
Matrix Compiler2: 467 bytes object code size
